data_3D\Atomistic
_audit_creation_date              2019-09-30
_audit_creation_method            'Materials Studio'
_symmetry_space_group_name_H-M    'P6/MMM'
_symmetry_Int_Tables_number       191
_symmetry_cell_setting            hexagonal
loop_
_symmetry_equiv_pos_as_xyz
  x,y,z
  -y,x-y,z
  -x+y,-x,z
  -x,-y,z
  y,-x+y,z
  x-y,x,z
  y,x,-z
  x-y,-y,-z
  -x,-x+y,-z
  -y,-x,-z
  -x+y,y,-z
  x,x-y,-z
  -x,-y,-z
  y,-x+y,-z
  x-y,x,-z
  x,y,-z
  -y,x-y,-z
  -x+y,-x,-z
  -y,-x,z
  -x+y,y,z
  x,x-y,z
  y,x,z
  x-y,-y,z
  -x,-x+y,z
_cell_length_a                    20.4570
_cell_length_b                    20.4570
_cell_length_c                    30.0000
_cell_angle_alpha                 90.0000
_cell_angle_beta                  90.0000
_cell_angle_gamma                 120.0000
loop_
_atom_site_label
_atom_site_type_symbol
_atom_site_fract_x
_atom_site_fract_y
_atom_site_fract_z
_atom_site_U_iso_or_equiv
_atom_site_adp_type
_atom_site_occupancy
C1     C    -0.39966   0.33330   0.00000   0.00000  Uiso   1.00
C7     C    -0.46460   0.19962   0.00000   0.00000  Uiso   1.00
C8     C    -0.46569   0.13374   0.00000   0.00000  Uiso   1.00
N15    N    -0.52426   0.06888   0.00000   0.00000  Uiso   1.00
H28    H    -0.52142   0.19259   0.00000   0.00000  Uiso   1.00
H32    H    -0.57889   0.06111   0.00000   0.00000  Uiso   1.00
Ni16   Ni   -0.50000  -0.00000   0.00000   0.00000  Uiso   1.00
loop_
_geom_bond_atom_site_label_1
_geom_bond_atom_site_label_2
_geom_bond_distance
_geom_bond_site_symmetry_2
_ccdc_geom_bond_type
C1     C1      1.358   10    S
C1     C1      1.356   12_565 S
C1     C7      1.354   12_565 D
C7     C1      1.354   12_565 D
C7     C8      1.337   .     S
C7     H28     1.098   .     S
C8     C8      1.332   11_455 S
C8     N15     1.267   .     D
N15    Ni16    1.712   .     S
N15    H32     1.047   .     S
Ni16   N15     1.712   4_455 S
Ni16   N15     1.712   8     S
Ni16   N15     1.712   11_455 S
